[General]
#debug-on-errors = true
#record-eventlog = true
#eventlog-message-detail-pattern = Packet:declaredOn(Packet) or bitLength
#eventlog-message-detail-pattern = *

#sim-time-limit = 100h

**.appType = "CallApp"

#**.app[0].callReserve = 50Mbps
#**.app[0].usedBandwith = 5Mbps  
**.app[0].usedBandwith = 1Mbps
**.app[0].callArrival = exponential(5s) 
**.app[0].callDuration = exponential(120s)
**.app[0].TimeOn =  exponential(5s)
**.app[0].TimeOff = exponential(0.5s)



#**.app[1].callReserve = 50kbps
**.app[1].usedBandwith = 1Mbps
#**.app[1].usedBandwith = 20Mbps
**.app[1].sourceId = 1
**.app[1].destinationId = 1

**.app[1].callArrival = 5s 
**.app[1].callDuration = 120s
**.app[1].TimeOn =  10s
**.app[1].TimeOff = 1s

**.callReserve = 0
**.actualizeWithSignals = true 

**.independentFlows = false
#**.flowArrival  = exponential(1s)
#**.flowDuration = exponential(1s)
**.flowUsedBandwith = 600kbps
**.numSources = 1


**.minimumTimeActualize = 300s
**.app[0].destAddresses = "any"

output-scalar-file = ${resultdir}/${configname}-1MbB-${runnumber}-${iterationvarsf}.sca

[Config Test]
**.flowClass = "FiniteQueue"
repeat = 10
network = networks.Net60
**.RoutingType = "SourceRouting"

[Config Test2]
repeat = 10
**.packetMode = true
network = networks.Net60
**.RoutingType = "SourceRouting"

[Config RandFlow]
network = networks.RandomGraph
sim-time-limit = 100s
*.n = ${10..50 step 10}
**.packetMode = false
**.RoutingType = "SourceRouting"


[Config RandPacket]
network = networks.RandomGraph
sim-time-limit = 100s
*.n = ${10..50 step 10}
**.packetMode = true
**.RoutingType = "SourceRouting"


[Config RandPacket1000B]
network = networks.RandomGraph
sim-time-limit = 100s
*.n = ${10..50 step 10}
**.packetMode = true
**.packetSize = 8000b
**.RoutingType = "SourceRouting"

[Config N3Packet1000B]
network = networks.Net3
sim-time-limit = 100s
**.packetMode = false
**.packetSize = 8000b
**.RoutingType = "SourceRouting"

[Config RandPacket2]
network = networks.RandomGraph
sim-time-limit = 500s
*.n = ${10..50 step 10}
**.packetMode = true
**.packetSize = 8000b
**.RoutingType = "SourceRouting"

[Config RandFlow2]
repeat = 10
network = networks.RandomGraph
sim-time-limit = 500s
*.n = ${10..50 step 10}
**.packetMode = false
**.RoutingType = "SourceRouting"
