[General]
#debug-on-errors = true
#record-eventlog = true
#eventlog-message-detail-pattern = Packet:declaredOn(Packet) or bitLength
#eventlog-message-detail-pattern = *
sim-time-limit = 10000s
#sim-time-limit = 100h

**.vector-recording = false

**.appType = "CallApp"

#**.app[0].callReserve = 50Mbps
#**.app[0].usedBandwith = 5Mbps  
**.app[0].usedBandwith = 30Mbps

#**.app[1].callReserve = 50kbps
#**.app[1].usedBandwith = 1Mbps
#**.app[1].usedBandwith = 20Mbps
**.app[1].usedBandwith = 30Mbps
**.app[1].sourceId = 1
**.app[1].destinationId = 1

**.app[1].callArrival = 5s 
**.app[1].callDuration = 120s
**.app[1].TimeOn =  10s
**.app[1].TimeOff = 1s

**.callReserve = 0
**.actualizeWithSignals = true 

**.independentFlows = false
#**.flowArrival  = exponential(1s)
#**.flowDuration = exponential(1s)
**.flowUsedBandwith = 600kbps
**.numSources = 2

**.flowClass = "Discard" # Finite queue doesn't in this moment 
**.minimumTimeActualize = 300s

output-scalar-file = ${resultdir}/${configname}-1MbB-${runnumber}.sca

[Config Net6]
network = networks.Net6
**.rte[0].app[*].destAddresses = "5"

[Config Net10]
network = networks.Net10
**.RoutingType = "SourceRoutingFuzzy"

**.rte[0].app[0].destAddresses = "0 1 2 3 4 5 6 7 8 9"
**.rte[0].app[1].destAddresses = "3"


[Config NetNfsnet]
network = networks.NetNfsnet
**.RoutingType = "SourceRoutingFuzzy"

**.Seattle.app[0].destAddresses = "1 2 3 4 5 6 7 8 9 10 11 12"
**.Seattle.app[1].destAddresses = "3"

[Config Net10b]
network = networks.Net10
**.RoutingType = "SourceRoutingFuzzy"
**.app[1].disjointRoute = true

**.rte[0].app[0].destAddresses = "0 1 2 3 4 5 6 7 8 9"
**.rte[0].app[1].destAddresses = "3"
#**.rte[3].app[*].generateFlow = false

[Config Net60TestDijk]
network = networks.Net60
**.RoutingType = "SourceRouting"
**.app[0].destAddresses = "0 1 2 3 4 5 6 7 8 9 10 11 12 13 14 15 16 17 18 19 20 21 22 23 24 25 26 27 28 29 30 31 32 33 34 35 36 37 38 39 40 41 42 43 44 45 46 47 48 49 50 51 52 53 54 55 56"
**.rte[7].app[1].destAddresses = "20"
**.rte[20].app[1].destAddresses = "7"

[Config Net60Minhop]
network = networks.Net60
**.app[0].destAddresses = "0 1 2 3 4 5 6 7 8 9 10 11 12 13 14 15 16 17 18 19 20 21 22 23 24 25 26 27 28 29 30 31 32 33 34 35 36 37 38 39 40 41 42 43 44 45 46 47 48 49 50 51 52 53 54 55 56"
**.rte[7].app[1].destAddresses = "20"
**.rte[20].app[1].destAddresses = "7"

[Config Net60Srouting]
network = networks.Net60
**.RoutingType = "SourceRouting"
**.app[0].destAddresses = "0 1 2 3 4 5 6 7 8 9 10 11 12 13 14 15 16 17 18 19 20 21 22 23 24 25 26 27 28 29 30 31 32 33 34 35 36 37 38 39 40 41 42 43 44 45 46 47 48 49 50 51 52 53 54 55 56"
**.rte[7].app[1].destAddresses = "20"
**.rte[20].app[1].destAddresses = "7"

[Config Net60Disjoint]
network = networks.Net60
**.RoutingType = "SourceRouting"
**.app[1].disjointRoute = true
**.app[0].destAddresses = "0 1 2 3 4 5 6 7 8 9 10 11 12 13 14 15 16 17 18 19 20 21 22 23 24 25 26 27 28 29 30 31 32 33 34 35 36 37 38 39 40 41 42 43 44 45 46 47 48 49 50 51 52 53 54 55 56"
**.rte[7].app[1].destAddresses = "20"
**.rte[20].app[1].destAddresses = "7"


[Config Net60MinhopBreak]
repeat = 10
network = networks.Net60
**.app[0].destAddresses = "0 1 2 3 4 5 6 7 8 9 10 11 12 13 14 15 16 17 18 19 20 21 22 23 24 25 26 27 28 29 30 31 32 33 34 35 36 37 38 39 40 41 42 43 44 45 46 47 48 49 50 51 52 53 54 55 56"
**.rte[7].app[1].destAddresses = "20"
**.rte[20].app[1].destAddresses = "7"
**.failure.config = xmldoc("fallos.xml")

[Config Net60SroutingBreakNoFuzzy]
repeat = 10
network = networks.Net60
**.RoutingType = "SourceRouting"
**.app[0].destAddresses = "0 1 2 3 4 5 6 7 8 9 10 11 12 13 14 15 16 17 18 19 20 21 22 23 24 25 26 27 28 29 30 31 32 33 34 35 36 37 38 39 40 41 42 43 44 45 46 47 48 49 50 51 52 53 54 55 56"
**.rte[7].app[1].destAddresses = "20"
**.rte[20].app[1].destAddresses = "7"
**.failure.config = xmldoc("fallos.xml")

[Config Net60SroutingBreak]
network = networks.Net60
**.RoutingType = "SourceRoutingFuzzy"
**.app[0].destAddresses = "0 1 2 3 4 5 6 7 8 9 10 11 12 13 14 15 16 17 18 19 20 21 22 23 24 25 26 27 28 29 30 31 32 33 34 35 36 37 38 39 40 41 42 43 44 45 46 47 48 49 50 51 52 53 54 55 56"
**.rte[7].app[1].destAddresses = "20"
**.rte[20].app[1].destAddresses = "7"
**.failure.config = xmldoc("fallos.xml")

[Config Net60SroutingkNoFuzzyRef]
repeat = 10
network = networks.Net60
**.RoutingType = "SourceRouting"
**.app[0].destAddresses = "0 1 2 3 4 5 6 7 8 9 10 11 12 13 14 15 16 17 18 19 20 21 22 23 24 25 26 27 28 29 30 31 32 33 34 35 36 37 38 39 40 41 42 43 44 45 46 47 48 49 50 51 52 53 54 55 56"

[Config Net60SroutingkNoFuzzyHyperRef]
repeat = 10
**.useHyperbolic = true
network = networks.Net60
**.RoutingType = "SourceRouting"
**.app[0].destAddresses = "0 1 2 3 4 5 6 7 8 9 10 11 12 13 14 15 16 17 18 19 20 21 22 23 24 25 26 27 28 29 30 31 32 33 34 35 36 37 38 39 40 41 42 43 44 45 46 47 48 49 50 51 52 53 54 55 56"


[Config Net60SroutingkNoFuzzyRefInst]
repeat = 10
**.instValue = true
network = networks.Net60
**.RoutingType = "SourceRouting"
**.app[0].destAddresses = "0 1 2 3 4 5 6 7 8 9 10 11 12 13 14 15 16 17 18 19 20 21 22 23 24 25 26 27 28 29 30 31 32 33 34 35 36 37 38 39 40 41 42 43 44 45 46 47 48 49 50 51 52 53 54 55 56"

[Config Net60SroutingSwRefInst]
repeat = 10
**.instValue = true
network = networks.Net60
**.RoutingType = "Sw"
**.app[0].destAddresses = "0 1 2 3 4 5 6 7 8 9 10 11 12 13 14 15 16 17 18 19 20 21 22 23 24 25 26 27 28 29 30 31 32 33 34 35 36 37 38 39 40 41 42 43 44 45 46 47 48 49 50 51 52 53 54 55 56"

[Config Net60SroutingSwRef_b]
repeat = 10
**.instValue = false
network = networks.Net60
**.RoutingType = "Sw"
**.app[0].destAddresses = "0 1 2 3 4 5 6 7 8 9 10 11 12 13 14 15 16 17 18 19 20 21 22 23 24 25 26 27 28 29 30 31 32 33 34 35 36 37 38 39 40 41 42 43 44 45 46 47 48 49 50 51 52 53 54 55 56"

[Config Net60SroutingWsRefInst]
repeat = 10
**.instValue = true
network = networks.Net60
**.RoutingType = "Ws"
**.app[0].destAddresses = "0 1 2 3 4 5 6 7 8 9 10 11 12 13 14 15 16 17 18 19 20 21 22 23 24 25 26 27 28 29 30 31 32 33 34 35 36 37 38 39 40 41 42 43 44 45 46 47 48 49 50 51 52 53 54 55 56"

[Config Net60SroutingWsRef_b]
repeat = 10
**.instValue = false
network = networks.Net60
**.RoutingType = "Ws"
**.app[0].destAddresses = "0 1 2 3 4 5 6 7 8 9 10 11 12 13 14 15 16 17 18 19 20 21 22 23 24 25 26 27 28 29 30 31 32 33 34 35 36 37 38 39 40 41 42 43 44 45 46 47 48 49 50 51 52 53 54 55 56"

[Config Net60SroutingWsFuzzyRef]
repeat = 10
**.instValue = false
network = networks.Net60
**.RoutingType = "WsFuzzy"
**.app[0].destAddresses = "0 1 2 3 4 5 6 7 8 9 10 11 12 13 14 15 16 17 18 19 20 21 22 23 24 25 26 27 28 29 30 31 32 33 34 35 36 37 38 39 40 41 42 43 44 45 46 47 48 49 50 51 52 53 54 55 56"

[Config Net60SroutingSwFuzztRef]
repeat = 10
**.instValue = false
network = networks.Net60
**.RoutingType = "SwFuzzy"
**.app[0].destAddresses = "0 1 2 3 4 5 6 7 8 9 10 11 12 13 14 15 16 17 18 19 20 21 22 23 24 25 26 27 28 29 30 31 32 33 34 35 36 37 38 39 40 41 42 43 44 45 46 47 48 49 50 51 52 53 54 55 56"


[Config Net60SroutingRefHyper]
repeat = 10
**.useHyperbolic = true
network = networks.Net60
**.RoutingType = "SourceRoutingFuzzy"
**.app[0].destAddresses = "0 1 2 3 4 5 6 7 8 9 10 11 12 13 14 15 16 17 18 19 20 21 22 23 24 25 26 27 28 29 30 31 32 33 34 35 36 37 38 39 40 41 42 43 44 45 46 47 48 49 50 51 52 53 54 55 56"


[Config Net60SroutingRef]
repeat = 10
network = networks.Net60
**.RoutingType = "SourceRoutingFuzzy"
**.app[0].destAddresses = "0 1 2 3 4 5 6 7 8 9 10 11 12 13 14 15 16 17 18 19 20 21 22 23 24 25 26 27 28 29 30 31 32 33 34 35 36 37 38 39 40 41 42 43 44 45 46 47 48 49 50 51 52 53 54 55 56"

[Config Net60SroutingRefOther]
repeat = 10
network = networks.Net60
**.RoutingType = "SourceRoutingFuzzy"
**.app[0].destAddresses = "0 1 2 3 4 5 6 7 8 9 10 11 12 13 14 15 16 17 18 19 20 21 22 23 24 25 26 27 28 29 30 31 32 33 34 35 36 37 38 39 40 41 42 43 44 45 46 47 48 49 50 51 52 53 54 55 56"


[Config Net60SroutingFuzzyCorregidoRef]
repeat = 10
network = networks.Net60
**.RoutingType = "SourceRoutingFuzzy"
**.app[0].destAddresses = "0 1 2 3 4 5 6 7 8 9 10 11 12 13 14 15 16 17 18 19 20 21 22 23 24 25 26 27 28 29 30 31 32 33 34 35 36 37 38 39 40 41 42 43 44 45 46 47 48 49 50 51 52 53 54 55 56"
**.fuzzyCorregido = true

[Config Net60SroutingRefSobreCoste]
repeat = 10
network = networks.Net60
**.RoutingType = "SourceRoutingFuzzy"
**.app[0].destAddresses = "0 1 2 3 4 5 6 7 8 9 10 11 12 13 14 15 16 17 18 19 20 21 22 23 24 25 26 27 28 29 30 31 32 33 34 35 36 37 38 39 40 41 42 43 44 45 46 47 48 49 50 51 52 53 54 55 56"
**.levelsValues = "30 60 90 95"
**.santionValues = "1 3 5 10"

[Config Net60Test]
repeat = 10
network = networks.Net60
**.RoutingType = "SourceRoutingFuzzy"
**.app[0].destAddresses = "0 1 2 3 4 5 6 7 8 9 10 11 12 13 14 15 16 17 18 19 20 21 22 23 24 25 26 27 28 29 30 31 32 33 34 35 36 37 38 39 40 41 42 43 44 45 46 47 48 49 50 51 52 53 54 55 56"
**.levelsValues = "30 60 90 95"
**.santionValues = "1 3 5 10"


[Config Net60TestAlphaConAlpha]
repeat = 10
network = networks.Net60_b
**.app[*].useAlpha = true
**.RoutingType = "SourceRoutingFuzzy"
**.app[0].destAddresses = "0 1 2 3 4 5 6 7 8 9 10 11 12 13 14 15 16 17 18 19 20 21 22 23 24 25 26 27 28 29 30 31 32 33 34 35 36 37 38 39 40 41 42 43 44 45 46 47 48 49 50 51 52 53 54 55 56"
**.levelsValues = "30 60 90 95"
**.santionValues = "1 3 5 10"

[Config Net60TestAlphaSinAlpha]
repeat = 10
network = networks.Net60_b

**.RoutingType = "SourceRoutingFuzzy"
**.app[0].destAddresses = "0 1 2 3 4 5 6 7 8 9 10 11 12 13 14 15 16 17 18 19 20 21 22 23 24 25 26 27 28 29 30 31 32 33 34 35 36 37 38 39 40 41 42 43 44 45 46 47 48 49 50 51 52 53 54 55 56"
**.levelsValues = "30 60 90 95"
**.santionValues = "1 3 5 10"



[Config Net60DisjointBreak]
network = networks.Net60
**.RoutingType = "SourceRoutingFuzzy"
**.app[1].RoutingType = "BackupRouting"
**.app[0].destAddresses = "0 1 2 3 4 5 6 7 8 9 10 11 12 13 14 15 16 17 18 19 20 21 22 23 24 25 26 27 28 29 30 31 32 33 34 35 36 37 38 39 40 41 42 43 44 45 46 47 48 49 50 51 52 53 54 55 56"
**.rte[7].app[1].destAddresses = "20"
**.rte[20].app[1].destAddresses = "7"
**.failure.config = xmldoc("fallos.xml")

[Config Referencia]
network = networks.Net60
**.RoutingType = "SourceRoutingFuzzy"

**.app[0].destAddresses = "0 1 2 3 4 5 6 7 8 9 10 11 12 13 14 15 16 17 18 19 20 21 22 23 24 25 26 27 28 29 30 31 32 33 34 35 36 37 38 39 40 41 42 43 44 45 46 47 48 49 50 51 52 53 54 55 56"
**.rte[7].app[1].destAddresses = "20"
**.rte[20].app[1].destAddresses = "7"


[Config Net60SroutingkNoFuzzyHyperTrafic]
repeat = 10
**.app[0].callArrival = exponential(20s) 
**.app[0].callDuration = exponential(120s)
**.app[0].TimeOn =  exponential(5s)
**.app[0].TimeOff = exponential(1s)

**.useHyperbolic = true
network = networks.Net60
**.RoutingType = "SourceRouting"
**.app[0].destAddresses = "0 1 2 3 4 5 6 7 8 9 10 11 12 13 14 15 16 17 18 19 20 21 22 23 24 25 26 27 28 29 30 31 32 33 34 35 36 37 38 39 40 41 42 43 44 45 46 47 48 49 50 51 52 53 54 55 56"

[Config Net60SroutingkFuzzyHyperTrafic]
repeat = 10

**.app[0].callArrival = exponential(20s) 
**.app[0].callDuration = exponential(120s)
**.app[0].TimeOn =  exponential(5s)
**.app[0].TimeOff = exponential(1s)


**.useHyperbolic = true
network = networks.Net60
**.RoutingType = "SourceRoutingFuzzy"
**.app[0].destAddresses = "0 1 2 3 4 5 6 7 8 9 10 11 12 13 14 15 16 17 18 19 20 21 22 23 24 25 26 27 28 29 30 31 32 33 34 35 36 37 38 39 40 41 42 43 44 45 46 47 48 49 50 51 52 53 54 55 56"



[Config Net60SroutingkNoFuzzyHyperCuellos]
repeat = 10
**.app[0].callArrival = exponential(10s) 
**.app[0].callDuration = exponential(120s)
**.app[0].TimeOn =  exponential(5s)
**.app[0].TimeOff = exponential(1s)

**.useHyperbolic = true
network = networks.Net60
**.RoutingType = "SourceRouting"
**.rte[7].app[0].destAddresses = "7 9 18 20 29 52 48 40"
**.rte[9].app[0].destAddresses = "7 9 18 20 29 52 48 40"
**.rte[18].app[0].destAddresses = "7 9 18 20 29 52 48 40"
**.rte[20].app[0].destAddresses = "7 9 18 20 29 52 48 40"
**.rte[29].app[0].destAddresses = "7 9 18 20 29 52 48 40"
**.rte[52].app[0].destAddresses = "7 9 18 20 29 52 48 40"
**.rte[48].app[0].destAddresses = "7 9 18 20 29 52 48 40"
**.rte[40].app[0].destAddresses = "7 9 18 20 29 52 48 40"


[Config Net60SroutingkFuzzyHyperCuellos]
repeat = 10
**.app[0].callArrival = exponential(10s) 
**.app[0].callDuration = exponential(120s)
**.app[0].TimeOn =  exponential(5s)
**.app[0].TimeOff = exponential(1s)
**.useHyperbolic = true
network = networks.Net60
**.RoutingType = "SourceRoutingFuzzy"
**.rte[7].app[0].destAddresses = "7 9 18 20 29 52 48 40"
**.rte[9].app[0].destAddresses = "7 9 18 20 29 52 48 40"
**.rte[18].app[0].destAddresses = "7 9 18 20 29 52 48 40"
**.rte[20].app[0].destAddresses = "7 9 18 20 29 52 48 40"
**.rte[29].app[0].destAddresses = "7 9 18 20 29 52 48 40"
**.rte[52].app[0].destAddresses = "7 9 18 20 29 52 48 40"
**.rte[48].app[0].destAddresses = "7 9 18 20 29 52 48 40"
**.rte[40].app[0].destAddresses = "7 9 18 20 29 52 48 40"

[Config Net60]
network = networks.Net60
**.destAddresses = "1 50"

[Config Net60a]
network = networks.Net60a
**.destAddresses = "1 28 50"

[Config Net60b]
network = networks.Net60b
repeat = 10
**.fuzzyCorregido = true
**.RoutingType = "SourceRoutingFuzzy"
**.app[0].destAddresses = "0 1 2 3 4 5 6 7 8 9 10 11 12 13 14 15 16 17 18 19 20 21 22 23 24 25 26 27 28 29 30 31 32 33 34 35 36 37 38 39 40 41 42 43 44 45 46 47 48 49 50 51 52 53 54 55 56"
**.rte[7].app[1].destAddresses = "20 7 10 50"
**.rte[20].app[1].destAddresses = "20 7 10 50"
**.rte[10].app[1].destAddresses = "20 7 10 50"
**.rte[50].app[1].destAddresses = "20 7 10 50"

[Config Net60bDisj]
network = networks.Net60b
repeat = 10
**.fuzzyCorregido = true
**.RoutingType = "SourceRoutingFuzzy"
**.app[0].destAddresses = "0 1 2 3 4 5 6 7 8 9 10 11 12 13 14 15 16 17 18 19 20 21 22 23 24 25 26 27 28 29 30 31 32 33 34 35 36 37 38 39 40 41 42 43 44 45 46 47 48 49 50 51 52 53 54 55 56"
**.app[1].disjointRoute = true

**.rte[7].app[1].destAddresses = "20 7 10 50"
**.rte[20].app[1].destAddresses = "20 7 10 50"
**.rte[10].app[1].destAddresses = "20 7 10 50"
**.rte[50].app[1].destAddresses = "20 7 10 50"

[Config Net60b1Source]
network = networks.Net60b
repeat = 10
**.fuzzyCorregido = true
**.RoutingType = "SourceRoutingFuzzy"
**.app[0].destAddresses = "0 1 2 3 4 5 6 7 8 9 10 11 12 13 14 15 16 17 18 19 20 21 22 23 24 25 26 27 28 29 30 31 32 33 34 35 36 37 38 39 40 41 42 43 44 45 46 47 48 49 50 51 52 53 54 55 56"

[Config Net60bDisj1Source]
network = networks.Net60b
repeat = 10
**.fuzzyCorregido = true
**.RoutingType = "SourceRoutingFuzzy"
**.app[0].destAddresses = "0 1 2 3 4 5 6 7 8 9 10 11 12 13 14 15 16 17 18 19 20 21 22 23 24 25 26 27 28 29 30 31 32 33 34 35 36 37 38 39 40 41 42 43 44 45 46 47 48 49 50 51 52 53 54 55 56"
**.app[0].disjointRoute = true


[Config RandomGraph]
network = networks.RandomGraph
**.destAddresses = "0 2"

[Config Mesh]
network = networks.Mesh
**.destAddresses = "0 18 52"

